# Put Keywords Here, check Charge and Multiplicity

From '14b_wrong_order.txt'

0  1
O           0.76700        -1.25300         0.24100
C           1.27900         0.00000        -0.48200
C           0.76700         1.25300         0.24100
C          -0.76700         1.25300         0.24100
C          -1.27900         0.00000        -0.48200
C          -0.76700        -1.25300         0.24100
H          -0.91440         0.00000        -1.51560
H          -2.37500         0.00000        -0.48120
H          -1.13220        -2.14780        -0.27590
H          -1.13220        -1.25330         1.27430
H           0.91440         0.00000        -1.51560
H           2.37500         0.00000        -0.48120
H           1.13220         2.14780        -0.27590
H           1.13220         1.25330         1.27430
H          -1.13220         2.14780        -0.27590
H          -1.13220         1.25330         1.27430


