# Put Keywords Here, check Charge and Multiplicity

From '1c4.sdf'

0  1
C           1.44700         0.00000        -0.25600
C           0.72400         1.25300         0.25600
C          -0.72400         1.25300        -0.25600
C          -1.44700         0.00000         0.25600
C          -0.72400        -1.25300        -0.25600
O           0.72400        -1.25300         0.25600
H           2.48060         0.00000         0.10860
H           1.44620         0.00000        -1.35200
H           0.72410         1.25270         1.35200
H           1.24070         2.14790        -0.10920
H          -0.72410         1.25270        -1.35200
H          -1.24070         2.14790         0.10920
H          -2.48060         0.00000        -0.10860
H          -1.44620         0.00000         1.35200
H          -0.72410        -1.25270        -1.35200
H          -1.24070        -2.14790         0.10920


