# Put Keywords Here, check Charge and Multiplicity

From '4c1.sdf'

0  1
C          -0.66000        -1.14300        -0.23300
C          -1.32000        -0.00000         0.23300
C          -0.66000         1.14300        -0.23300
C           0.66000         1.14300         0.23300
C           1.32000        -0.00000        -0.23300
O           0.66000        -1.14300         0.23300
H          -0.66040        -1.14360        -1.32900
H          -1.17650        -2.03770         0.13300
H          -1.32080         0.00000         1.32900
H          -2.35310         0.00000        -0.13310
H          -1.17650         2.03770         0.13300
H          -0.66040         1.14360        -1.32900
H           0.66040         1.14360         1.32900
H           1.17650         2.03770        -0.13300
H           2.35310         0.00000         0.13310
H           1.32080         0.00000        -1.32900


