# Put Keywords Here, check Charge and Multiplicity

From 'e3.pdb'

0  1
 C          1.38500         0.02500         0.00400
 C          0.63900         1.18600        -0.22800
 C         -0.64400         1.11600         0.32800
 C         -1.34700         0.04000        -0.22800
 C         -0.71400        -1.18700         0.00400
 O          0.68100        -1.18000         0.12000


